<?xml version="1.0" encoding="UTF-8"?>

<!-- generated on 2026-01-16T15:42:49.544072+05:30 by Eclipse SUMO netconvert 1.25.0
<netconvertConfiguration xmlns:xsi="http://www.w3.org/2001/XMLSchema-instance" xsi:noNamespaceSchemaLocation="http://sumo.dlr.de/xsd/netconvertConfiguration.xsd">

    <input>
        <osm-files value="data/map.osm"/>
    </input>

    <output>
        <output-file value="network.net.xml"/>
    </output>

    <projection>
        <proj.utm value="true"/>
    </projection>

</netconvertConfiguration>
-->

<net version="1.20" junctionCornerDetail="5" limitTurnSpeed="5.50" xmlns:xsi="http://www.w3.org/2001/XMLSchema-instance" xsi:noNamespaceSchemaLocation="http://sumo.dlr.de/xsd/net_file.xsd">

    <location netOffset="-716303.37,-3163839.33" convBoundary="0.00,0.00,6220.26,9472.10" origBoundary="76.970386,28.544470,77.314916,29.432571" projParameter="+proj=utm +zone=43 +ellps=WGS84 +datum=WGS84 +units=m +no_defs"/>

    <type id="highway.cycleway" priority="1" numLanes="1" speed="5.56" allow="bicycle" oneway="0" width="2.00"/>
    <type id="highway.footway" priority="1" numLanes="1" speed="2.78" allow="pedestrian" oneway="1" width="2.00"/>
    <type id="highway.living_street" priority="2" numLanes="1" speed="2.78" disallow="tram rail_urban rail rail_electric rail_fast ship container cable_car subway aircraft wheelchair scooter drone" oneway="0"/>
    <type id="highway.path" priority="1" numLanes="1" speed="5.56" allow="pedestrian bicycle" oneway="0" width="2.00"/>
    <type id="highway.primary" priority="12" numLanes="2" speed="27.78" disallow="tram rail_urban rail rail_electric rail_fast ship container cable_car subway aircraft wheelchair scooter drone" oneway="0"/>
    <type id="highway.primary_link" priority="7" numLanes="1" speed="22.22" disallow="tram rail_urban rail rail_electric rail_fast ship container cable_car subway aircraft wheelchair scooter drone" oneway="0"/>
    <type id="highway.residential" priority="3" numLanes="1" speed="13.89" disallow="tram rail_urban rail rail_electric rail_fast ship container cable_car subway aircraft wheelchair scooter drone" oneway="0"/>
    <type id="highway.secondary" priority="11" numLanes="1" speed="27.78" disallow="tram rail_urban rail rail_electric rail_fast ship container cable_car subway aircraft wheelchair scooter drone" oneway="0"/>
    <type id="highway.secondary_link" priority="6" numLanes="1" speed="22.22" disallow="tram rail_urban rail rail_electric rail_fast ship container cable_car subway aircraft wheelchair scooter drone" oneway="0"/>
    <type id="highway.service" priority="1" numLanes="1" speed="5.56" allow="pedestrian delivery bicycle" oneway="0"/>
    <type id="highway.steps" priority="1" numLanes="1" speed="1.39" allow="pedestrian" oneway="1" width="2.00"/>
    <type id="highway.tertiary" priority="10" numLanes="1" speed="22.22" disallow="tram rail_urban rail rail_electric rail_fast ship container cable_car subway aircraft wheelchair scooter drone" oneway="0"/>
    <type id="highway.track" priority="1" numLanes="1" speed="5.56" allow="pedestrian motorcycle moped bicycle" oneway="0"/>
    <type id="highway.trunk" priority="13" numLanes="2" speed="27.78" disallow="pedestrian bicycle tram rail_urban rail rail_electric rail_fast ship container cable_car subway aircraft wheelchair scooter drone" oneway="0"/>
    <type id="highway.trunk_link" priority="8" numLanes="1" speed="22.22" disallow="pedestrian bicycle tram rail_urban rail rail_electric rail_fast ship container cable_car subway aircraft wheelchair scooter drone" oneway="0"/>
    <type id="highway.unclassified" priority="4" numLanes="1" speed="13.89" disallow="tram rail_urban rail rail_electric rail_fast ship container cable_car subway aircraft wheelchair scooter drone" oneway="0"/>
    <type id="railway.rail" priority="20" numLanes="1" speed="44.44" allow="rail" oneway="1"/>
    <type id="railway.subway" priority="18" numLanes="1" speed="27.78" allow="subway" oneway="1"/>

    <edge id=":10232297497_0" function="internal">
        <lane id=":10232297497_0_0" index="0" disallow="tram rail_urban rail rail_electric rail_fast ship container cable_car subway aircraft wheelchair scooter drone" speed="13.89" length="8.29" shape="2608.01,5443.99 2599.82,5442.75"/>
    </edge>
    <edge id=":10232297497_1" function="internal">
        <lane id=":10232297497_1_0" index="0" allow="pedestrian delivery bicycle" speed="6.91" length="2.45" shape="2608.01,5443.99 2606.05,5443.29 2605.80,5443.02"/>
    </edge>
    <edge id=":10232297497_7" function="internal">
        <lane id=":10232297497_7_0" index="0" allow="pedestrian delivery bicycle" speed="6.91" length="6.86" shape="2605.80,5443.02 2604.67,5441.85 2603.87,5439.67 2603.66,5436.77"/>
    </edge>
    <edge id=":10232297497_2" function="internal">
        <lane id=":10232297497_2_0" index="0" allow="pedestrian delivery bicycle" speed="5.11" length="4.66" shape="2606.86,5436.84 2606.93,5438.49 2607.22,5439.70 2607.75,5440.48 2608.49,5440.83"/>
    </edge>
    <edge id=":10232297497_3" function="internal">
        <lane id=":10232297497_3_0" index="0" allow="pedestrian delivery bicycle" speed="6.77" length="10.81" shape="2606.86,5436.84 2606.36,5439.82 2605.02,5441.80 2602.84,5442.77 2599.82,5442.75"/>
    </edge>
    <edge id=":10232297497_4" function="internal">
        <lane id=":10232297497_4_0" index="0" allow="pedestrian delivery bicycle" speed="3.65" length="4.67" shape="2606.86,5436.84 2606.03,5438.02 2605.22,5438.40 2604.43,5437.99 2603.66,5436.77"/>
    </edge>
    <edge id=":10232297497_5" function="internal">
        <lane id=":10232297497_5_0" index="0" allow="pedestrian delivery bicycle" speed="4.91" length="5.16" shape="2600.30,5439.59 2601.74,5439.60 2602.78,5439.13 2603.42,5438.19 2603.66,5436.77"/>
    </edge>
    <edge id=":10232297497_6" function="internal">
        <lane id=":10232297497_6_0" index="0" disallow="tram rail_urban rail rail_electric rail_fast ship container cable_car subway aircraft wheelchair scooter drone" speed="13.89" length="8.29" shape="2600.30,5439.59 2608.49,5440.83"/>
    </edge>
    <edge id=":10232505602_0" function="internal">
        <lane id=":10232505602_0_0" index="0" allow="pedestrian delivery bicycle" speed="3.65" length="4.67" shape="2691.49,5367.30 2691.42,5368.74 2690.95,5369.50 2690.05,5369.57 2688.75,5368.96"/>
    </edge>
    <edge id=":10246605661_0" function="internal">
        <lane id=":10246605661_0_0" index="0" allow="pedestrian delivery bicycle" speed="5.12" length="5.09" shape="2847.23,5523.84 2845.81,5523.92 2844.75,5524.42 2844.06,5525.33 2843.72,5526.64"/>
    </edge>
    <edge id=":10246605661_1" function="internal">
        <lane id=":10246605661_1_0" index="0" allow="pedestrian delivery bicycle" speed="6.84" length="10.28" shape="2847.23,5523.84 2844.47,5523.23 2842.59,5521.88 2841.59,5519.79 2841.48,5516.97"/>
    </edge>
    <edge id=":10246605661_2" function="internal">
        <lane id=":10246605661_2_0" index="0" disallow="tram rail_urban rail rail_electric rail_fast ship container cable_car subway aircraft wheelchair scooter drone" speed="3.65" length="4.67" shape="2847.23,5523.84 2846.09,5522.95 2845.76,5522.12 2846.22,5521.36 2847.47,5520.65"/>
    </edge>
    <edge id=":10246605661_3" function="internal">
        <lane id=":10246605661_3_0" index="0" allow="pedestrian delivery bicycle" speed="5.02" length="5.03" shape="2844.66,5517.29 2844.72,5518.67 2845.21,5519.69 2846.12,5520.35 2847.47,5520.65"/>
    </edge>
    <edge id=":10246605661_4" function="internal">
        <lane id=":10246605661_4_0" index="0" allow="pedestrian delivery bicycle" speed="5.56" length="9.40" shape="2844.66,5517.29 2843.72,5526.64"/>
    </edge>
    <edge id=":10246605661_5" function="internal">
        <lane id=":10246605661_5_0" index="0" allow="pedestrian delivery bicycle" speed="3.65" length="4.67" shape="2844.66,5517.29 2843.74,5518.40 2842.91,5518.72 2842.15,5518.24 2841.48,5516.97"/>
    </edge>
    <edge id=":10246605661_6" function="internal">
        <lane id=":10246605661_6_0" index="0" allow="pedestrian delivery bicycle" speed="5.56" length="9.40" shape="2840.54,5526.33 2841.48,5516.97"/>
    </edge>
    <edge id=":10246605661_7" function="internal">
        <lane id=":10246605661_7_0" index="0" allow="pedestrian delivery bicycle" speed="6.92" length="10.17" shape="2840.54,5526.33 2841.20,5523.66 2842.58,5521.83 2844.67,5520.82 2847.47,5520.65"/>
    </edge>
    <edge id=":10246605661_8" function="internal">
        <lane id=":10246605661_8_0" index="0" allow="pedestrian delivery bicycle" speed="3.65" length="4.67" shape="2840.54,5526.33 2841.45,5525.21 2842.29,5524.89 2843.05,5525.37 2843.72,5526.64"/>
    </edge>
    <edge id=":10246605662_0" function="internal">
        <lane id=":10246605662_0_0" index="0" disallow="tram rail_urban rail rail_electric rail_fast ship container cable_car subway aircraft wheelchair scooter drone" speed="13.89" length="0.26" shape="2997.80,5535.48 2997.73,5535.46 2997.68,5535.45 2997.63,5535.44 2997.55,5535.44"/>
    </edge>
    <edge id=":10246605662_1" function="internal">
        <lane id=":10246605662_1_0" index="0" disallow="tram rail_urban rail rail_electric rail_fast ship container cable_car subway aircraft wheelchair scooter drone" speed="13.89" length="0.78" shape="2997.79,5532.24 2998.02,5532.26 2998.18,5532.28 2998.34,5532.31 2998.56,5532.37"/>
    </edge>
    <edge id=":10274898403_0" function="internal">
        <lane id=":10274898403_0_0" index="0" allow="pedestrian delivery bicycle" speed="6.04" length="13.05" shape="2811.64,5152.76 2808.63,5155.49 2806.62,5155.78 2805.60,5153.64 2805.59,5149.06"/>
    </edge>
    <edge id=":10274898403_1" function="internal">
        <lane id=":10274898403_1_0" index="0" allow="pedestrian delivery bicycle" speed="3.65" length="4.67" shape="2811.64,5152.76 2810.25,5153.13 2809.38,5152.89 2809.05,5152.06 2809.25,5150.63"/>
    </edge>
    <edge id=":10274898403_2" function="internal">
        <lane id=":10274898403_2_0" index="0" disallow="tram rail_urban rail rail_electric rail_fast ship container cable_car subway aircraft wheelchair scooter drone" speed="27.78" length="13.09" shape="2801.31,5161.84 2802.40,5148.80"/>
        <lane id=":10274898403_2_1" index="1" disallow="tram rail_urban rail rail_electric rail_fast ship container cable_car subway aircraft wheelchair scooter drone" speed="27.78" length="13.09" shape="2804.50,5162.11 2805.59,5149.06"/>
    </edge>
    <edge id=":10274898403_4" function="internal">
        <lane id=":10274898403_4_0" index="0" allow="pedestrian delivery bicycle" speed="13.69" length="12.74" shape="2804.50,5162.11 2804.99,5158.23 2805.82,5155.45 2807.18,5153.13 2809.25,5150.63"/>
    </edge>
    <edge id=":10274898404_0" function="internal">
        <lane id=":10274898404_0_0" index="0" allow="pedestrian delivery bicycle" speed="5.56" length="12.90" shape="2810.07,5149.72 2812.57,5147.26 2814.86,5145.10 2816.61,5142.72 2817.47,5139.55"/>
    </edge>
    <edge id=":10274898404_1" function="internal">
        <lane id=":10274898404_1_0" index="0" allow="pedestrian delivery bicycle" speed="3.65" length="4.67" shape="2810.07,5149.72 2811.46,5149.35 2812.32,5149.59 2812.66,5150.42 2812.46,5151.85"/>
    </edge>
    <edge id=":10274898404_2" function="internal">
        <lane id=":10274898404_2_0" index="0" allow="pedestrian delivery bicycle" speed="4.78" length="7.58" shape="2816.08,5153.45 2816.12,5150.93 2815.53,5149.81 2814.31,5150.12 2812.46,5151.85"/>
    </edge>
    <edge id=":10274898404_3" function="internal">
        <lane id=":10274898404_3_0" index="0" allow="pedestrian delivery bicycle" speed="5.56" length="13.97" shape="2816.08,5153.45 2817.47,5139.55"/>
    </edge>
    <edge id=":10274898405_0" function="internal">
        <lane id=":10274898405_0_0" index="0" allow="pedestrian delivery bicycle" speed="13.23" length="9.08" shape="2815.50,5075.51 2814.12,5073.17 2813.08,5071.54 2812.47,5069.82 2812.43,5067.22"/>
    </edge>
    <edge id=":10274898405_1" function="internal">
        <lane id=":10274898405_1_0" index="0" disallow="tram rail_urban rail rail_electric rail_fast ship container cable_car subway aircraft wheelchair scooter drone" speed="27.78" length="9.08" shape="2808.49,5076.00 2809.24,5066.95"/>
        <lane id=":10274898405_1_1" index="1" disallow="tram rail_urban rail rail_electric rail_fast ship container cable_car subway aircraft wheelchair scooter drone" speed="27.78" length="9.08" shape="2811.68,5076.26 2812.43,5067.22"/>
    </edge>
    <edge id=":10274898406_0" function="internal">
        <lane id=":10274898406_0_0" index="0" allow="pedestrian delivery bicycle" speed="5.56" length="0.89" shape="2821.65,5088.11 2821.67,5087.85 2821.66,5087.67 2821.60,5087.49 2821.48,5087.26"/>
    </edge>
    <edge id=":10274955540_0" function="internal">
        <lane id=":10274955540_0_0" index="0" allow="pedestrian delivery bicycle" speed="3.65" length="4.67" shape="3300.04,6248.23 3299.37,6249.51 3298.62,6249.99 3297.78,6249.68 3296.86,6248.57"/>
    </edge>
    <edge id=":10274973446_0" function="internal">
        <lane id=":10274973446_0_0" index="0" allow="delivery" speed="6.34" length="15.40" shape="3405.70,4624.91 3401.79,4628.16 3399.56,4628.54 3399.01,4626.04 3400.14,4620.66"/>
    </edge>
    <edge id=":10274973446_1" function="internal">
        <lane id=":10274973446_1_0" index="0" allow="pedestrian delivery bicycle" speed="3.65" length="4.67" shape="3405.70,4624.91 3404.28,4625.19 3403.44,4624.90 3403.16,4624.05 3403.45,4622.63"/>
    </edge>
    <edge id=":10274973446_2" function="internal">
        <lane id=":10274973446_2_0" index="0" disallow="pedestrian bicycle tram rail_urban rail rail_electric rail_fast ship container cable_car subway aircraft wheelchair scooter drone" speed="16.67" length="16.18" shape="3392.65,4635.42 3397.07,4619.77"/>
        <lane id=":10274973446_2_1" index="1" disallow="pedestrian bicycle tram rail_urban rail rail_electric rail_fast ship container cable_car subway aircraft wheelchair scooter drone" speed="16.67" length="16.18" shape="3395.77,4636.16 3400.14,4620.66"/>
    </edge>
    <edge id=":10274973446_4" function="internal">
        <lane id=":10274973446_4_0" index="0" allow="delivery" speed="11.12" length="15.83" shape="3395.77,4636.16 3397.23,4631.35 3398.95,4627.88 3401.00,4625.17 3403.45,4622.63"/>
    </edge>
    <edge id=":10564446011_0" function="internal">
        <lane id=":10564446011_0_0" index="0" allow="pedestrian delivery bicycle" speed="5.56" length="7.76" shape="2784.76,5499.69 2783.45,5499.16 2782.60,5497.89 2782.21,5495.87 2782.29,5493.11"/>
    </edge>
    <edge id=":10564446011_1" function="internal">
        <lane id=":10564446011_1_0" index="0" allow="pedestrian delivery bicycle" speed="3.65" length="4.67" shape="2784.76,5499.69 2783.64,5498.77 2783.32,5497.94 2783.80,5497.18 2785.07,5496.50"/>
    </edge>
    <edge id=":10564446011_2" function="internal">
        <lane id=":10564446011_2_0" index="0" allow="pedestrian delivery bicycle" speed="5.56" length="9.40" shape="2781.37,5502.47 2782.29,5493.11"/>
    </edge>
    <edge id=":10564446011_3" function="internal">
        <lane id=":10564446011_3_0" index="0" allow="pedestrian delivery bicycle" speed="5.56" length="7.76" shape="2781.37,5502.47 2781.83,5499.74 2782.60,5497.84 2783.68,5496.76 2785.07,5496.50"/>
    </edge>
    <edge id=":10564446012_0" function="internal">
        <lane id=":10564446012_0_0" index="0" allow="pedestrian delivery bicycle" speed="5.56" length="9.40" shape="2846.45,5499.45 2845.51,5508.80"/>
    </edge>
    <edge id=":10564446012_1" function="internal">
        <lane id=":10564446012_1_0" index="0" allow="pedestrian delivery bicycle" speed="5.56" length="10.16" shape="2846.45,5499.45 2845.78,5502.15 2844.41,5503.99 2842.33,5504.97 2839.55,5505.09"/>
    </edge>
    <edge id=":10564446012_2" function="internal">
        <lane id=":10564446012_2_0" index="0" allow="pedestrian delivery bicycle" speed="3.65" length="4.67" shape="2846.45,5499.45 2845.53,5500.56 2844.70,5500.88 2843.94,5500.40 2843.27,5499.13"/>
    </edge>
    <edge id=":10564446012_3" function="internal">
        <lane id=":10564446012_3_0" index="0" allow="pedestrian delivery bicycle" speed="5.05" length="5.01" shape="2839.86,5501.91 2841.24,5501.85 2842.26,5501.36 2842.94,5500.46 2843.27,5499.13"/>
    </edge>
    <edge id=":10564446012_4" function="internal">
        <lane id=":10564446012_4_0" index="0" allow="pedestrian delivery bicycle" speed="5.56" length="10.17" shape="2839.86,5501.91 2842.57,5502.57 2844.42,5503.94 2845.40,5506.02 2845.51,5508.80"/>
    </edge>
    <edge id=":10564446012_5" function="internal">
        <lane id=":10564446012_5_0" index="0" allow="pedestrian delivery bicycle" speed="3.65" length="4.67" shape="2839.86,5501.91 2840.98,5502.82 2841.30,5503.66 2840.82,5504.41 2839.55,5505.09"/>
    </edge>
    <edge id=":10564446012_6" function="internal">
        <lane id=":10564446012_6_0" index="0" allow="pedestrian delivery bicycle" speed="5.04" length="5.00" shape="2842.33,5508.48 2842.27,5507.11 2841.79,5506.09 2840.88,5505.42 2839.55,5505.09"/>
    </edge>
    <edge id=":10564446012_7" function="internal">
        <lane id=":10564446012_7_0" index="0" allow="pedestrian delivery bicycle" speed="5.56" length="9.40" shape="2842.33,5508.48 2843.27,5499.13"/>
    </edge>
    <edge id=":10564446012_8" function="internal">
        <lane id=":10564446012_8_0" index="0" allow="pedestrian delivery bicycle" speed="3.65" length="4.67" shape="2842.33,5508.48 2843.24,5507.37 2844.08,5507.05 2844.84,5507.53 2845.51,5508.80"/>
    </edge>
    <edge id=":10576227235_0" function="internal">
        <lane id=":10576227235_0_0" index="0" allow="pedestrian delivery bicycle" speed="5.56" length="8.42" shape="2442.01,5566.60 2439.53,5566.31 2437.82,5566.21 2436.11,5566.27 2433.62,5566.47"/>
    </edge>
    <edge id=":10576227235_1" function="internal">
        <lane id=":10576227235_1_0" index="0" allow="pedestrian delivery bicycle" speed="5.56" length="9.67" shape="2442.01,5566.60 2439.57,5565.93 2437.79,5564.61 2436.69,5562.63 2436.25,5560.00"/>
    </edge>
    <edge id=":10576227235_2" function="internal">
        <lane id=":10576227235_2_0" index="0" allow="pedestrian delivery bicycle" speed="3.65" length="4.67" shape="2442.01,5566.60 2440.92,5565.66 2440.62,5564.82 2441.11,5564.07 2442.40,5563.43"/>
    </edge>
    <edge id=":10576227235_3" function="internal">
        <lane id=":10576227235_3_0" index="0" allow="pedestrian delivery bicycle" speed="5.36" length="5.08" shape="2439.45,5559.89 2439.68,5561.31 2440.24,5562.37 2441.15,5563.07 2442.40,5563.43"/>
    </edge>
    <edge id=":10576227235_4" function="internal">
        <lane id=":10576227235_4_0" index="0" allow="pedestrian delivery bicycle" speed="5.56" length="9.92" shape="2439.45,5559.89 2439.17,5562.58 2438.10,5564.57 2436.25,5565.86 2433.62,5566.47"/>
    </edge>
    <edge id=":10576227235_5" function="internal">
        <lane id=":10576227235_5_0" index="0" allow="pedestrian delivery bicycle" speed="3.65" length="4.67" shape="2439.45,5559.89 2438.69,5561.12 2437.91,5561.55 2437.09,5561.17 2436.25,5560.00"/>
    </edge>
    <edge id=":10576227235_6" function="internal">
        <lane id=":10576227235_6_0" index="0" allow="pedestrian delivery bicycle" speed="5.10" length="4.94" shape="2433.35,5563.28 2434.66,5562.98 2435.58,5562.33 2436.11,5561.34 2436.25,5560.00"/>
    </edge>
    <edge id=":10576227235_7" function="internal">
        <lane id=":10576227235_7_0" index="0" allow="pedestrian delivery bicycle" speed="5.56" length="9.09" shape="2433.35,5563.28 2436.03,5563.06 2437.88,5563.00 2439.73,5563.11 2442.40,5563.43"/>
    </edge>
    <edge id=":10576227235_8" function="internal">
        <lane id=":10576227235_8_0" index="0" allow="pedestrian delivery bicycle" speed="3.65" length="4.67" shape="2433.35,5563.28 2434.61,5563.97 2435.08,5564.74 2434.74,5565.57 2433.62,5566.47"/>
    </edge>
    <edge id=":10576228449_0" function="internal">
        <lane id=":10576228449_0_0" index="0" allow="pedestrian delivery bicycle" speed="3.65" length="4.67" shape="2343.01,5574.11 2341.75,5573.42 2341.29,5572.65 2341.62,5571.82 2342.75,5570.93"/>
    </edge>
    <edge id=":10576228450_0" function="internal">
        <lane id=":10576228450_0_0" index="0" allow="pedestrian delivery bicycle" speed="5.56" length="9.36" shape="2371.36,5613.62 2362.02,5614.18"/>
    </edge>
    <edge id=":10576228450_1" function="internal">
        <lane id=":10576228450_1_0" index="0" allow="pedestrian delivery bicycle" speed="5.56" length="10.17" shape="2371.36,5613.62 2368.58,5613.38 2366.55,5612.30 2365.26,5610.40 2364.72,5607.67"/>
    </edge>
    <edge id=":10576228450_2" function="internal">
        <lane id=":10576228450_2_0" index="0" allow="pedestrian delivery bicycle" speed="3.65" length="4.67" shape="2371.36,5613.62 2370.11,5612.88 2369.67,5612.11 2370.02,5611.29 2371.18,5610.42"/>
    </edge>
    <edge id=":10576228450_3" function="internal">
        <lane id=":10576228450_3_0" index="0" allow="pedestrian delivery bicycle" speed="5.04" length="5.00" shape="2367.91,5607.50 2368.18,5608.84 2368.81,5609.78 2369.81,5610.30 2371.18,5610.42"/>
    </edge>
    <edge id=":10576228450_4" function="internal">
        <lane id=":10576228450_4_0" index="0" allow="pedestrian delivery bicycle" speed="5.56" length="10.14" shape="2367.91,5607.50 2367.67,5610.27 2366.61,5612.31 2364.72,5613.61 2362.02,5614.18"/>
    </edge>
    <edge id=":10576228450_5" function="internal">
        <lane id=":10576228450_5_0" index="0" allow="pedestrian delivery bicycle" speed="3.65" length="4.67" shape="2367.91,5607.50 2367.18,5608.74 2366.40,5609.18 2365.58,5608.82 2364.72,5607.67"/>
    </edge>
    <edge id=":10576228450_6" function="internal">
        <lane id=":10576228450_6_0" index="0" allow="pedestrian delivery bicycle" speed="5.06" length="5.02" shape="2361.81,5610.98 2363.15,5610.70 2364.08,5610.06 2364.60,5609.04 2364.72,5607.67"/>
    </edge>
    <edge id=":10576228450_7" function="internal">
        <lane id=":10576228450_7_0" index="0" allow="pedestrian delivery bicycle" speed="5.56" length="9.39" shape="2361.81,5610.98 2371.18,5610.42"/>
    </edge>
    <edge id=":10576228450_8" function="internal">
        <lane id=":10576228450_8_0" index="0" allow="pedestrian delivery bicycle" speed="3.65" length="4.67" shape="2361.81,5610.98 2363.06,5611.70 2363.51,5612.48 2363.16,5613.30 2362.02,5614.18"/>
    </edge>
    <edge id=":10576228451_0" function="internal">
        <lane id=":10576228451_0_0" index="0" allow="pedestrian delivery bicycle" speed="5.01" length="5.04" shape="2362.98,5575.60 2362.71,5574.24 2362.07,5573.30 2361.06,5572.80 2359.67,5572.72"/>
    </edge>
    <edge id=":10576228451_1" function="internal">
        <lane id=":10576228451_1_0" index="0" allow="pedestrian delivery bicycle" speed="5.56" length="10.17" shape="2362.98,5575.60 2363.21,5572.79 2364.26,5570.71 2366.11,5569.36 2368.77,5568.74"/>
    </edge>
    <edge id=":10576228451_2" function="internal">
        <lane id=":10576228451_2_0" index="0" allow="pedestrian delivery bicycle" speed="3.65" length="4.67" shape="2362.98,5575.60 2363.72,5574.35 2364.49,5573.91 2365.31,5574.27 2366.18,5575.42"/>
    </edge>
    <edge id=":10576228451_3" function="internal">
        <lane id=":10576228451_3_0" index="0" allow="pedestrian delivery bicycle" speed="5.14" length="5.12" shape="2369.04,5571.93 2367.72,5572.24 2366.81,5572.93 2366.29,5573.99 2366.18,5575.42"/>
    </edge>
    <edge id=":10576228451_4" function="internal">
        <lane id=":10576228451_4_0" index="0" allow="pedestrian delivery bicycle" speed="5.56" length="9.40" shape="2369.04,5571.93 2359.67,5572.72"/>
    </edge>
    <edge id=":10576228451_5" function="internal">
        <lane id=":10576228451_5_0" index="0" allow="pedestrian delivery bicycle" speed="3.65" length="4.67" shape="2369.04,5571.93 2367.78,5571.23 2367.31,5570.47 2367.65,5569.64 2368.77,5568.74"/>
    </edge>
    <edge id=":10576228451_6" function="internal">
        <lane id=":10576228451_6_0" index="0" allow="pedestrian delivery bicycle" speed="5.56" length="9.40" shape="2359.41,5569.53 2368.77,5568.74"/>
    </edge>
    <edge id=":10576228451_7" function="internal">
        <lane id=":10576228451_7_0" index="0" allow="pedestrian delivery bicycle" speed="5.56" length="10.31" shape="2359.41,5569.53 2362.24,5569.69 2364.31,5570.73 2365.62,5572.64 2366.18,5575.42"/>
    </edge>
    <edge id=":10576228451_8" function="internal">
        <lane id=":10576228451_8_0" index="0" allow="pedestrian delivery bicycle" speed="3.65" length="4.67" shape="2359.41,5569.53 2360.67,5570.22 2361.13,5570.99 2360.80,5571.82 2359.67,5572.72"/>
    </edge>
    <edge id=":10576228455_0" function="internal">
        <lane id=":10576228455_0_0" index="0" allow="pedestrian delivery bicycle" speed="5.42" length="5.32" shape="2448.50,5570.86 2448.30,5569.33 2447.75,5568.18 2446.84,5567.42 2445.59,5567.05"/>
    </edge>
    <edge id=":10576228455_1" function="internal">
        <lane id=":10576228455_1_0" index="0" allow="pedestrian delivery bicycle" speed="5.56" length="10.39" shape="2448.50,5570.86 2448.87,5568.02 2450.07,5566.02 2452.09,5564.87 2454.94,5564.56"/>
    </edge>
    <edge id=":10576228455_2" function="internal">
        <lane id=":10576228455_2_0" index="0" allow="pedestrian delivery bicycle" speed="3.65" length="4.67" shape="2448.50,5570.86 2449.29,5569.65 2450.08,5569.24 2450.89,5569.63 2451.70,5570.82"/>
    </edge>
    <edge id=":10576228455_3" function="internal">
        <lane id=":10576228455_3_0" index="0" allow="pedestrian delivery bicycle" speed="4.99" length="5.06" shape="2454.84,5567.75 2453.45,5567.91 2452.46,5568.47 2451.88,5569.44 2451.70,5570.82"/>
    </edge>
    <edge id=":10576228455_4" function="internal">
        <lane id=":10576228455_4_0" index="0" allow="pedestrian delivery bicycle" speed="5.56" length="9.28" shape="2454.84,5567.75 2452.08,5567.66 2450.20,5567.56 2448.32,5567.38 2445.59,5567.05"/>
    </edge>
    <edge id=":10576228455_5" function="internal">
        <lane id=":10576228455_5_0" index="0" allow="pedestrian delivery bicycle" speed="3.65" length="4.67" shape="2454.84,5567.75 2453.66,5566.91 2453.29,5566.10 2453.72,5565.31 2454.94,5564.56"/>
    </edge>
    <edge id=":10576228455_6" function="internal">
        <lane id=":10576228455_6_0" index="0" allow="pedestrian delivery bicycle" speed="5.56" length="9.00" shape="2445.98,5563.87 2448.63,5564.19 2450.45,5564.36 2452.28,5564.46 2454.94,5564.56"/>
    </edge>
    <edge id=":10576228455_7" function="internal">
        <lane id=":10576228455_7_0" index="0" allow="pedestrian delivery bicycle" speed="5.56" length="9.98" shape="2445.98,5563.87 2448.45,5564.57 2450.23,5565.96 2451.31,5568.05 2451.70,5570.82"/>
    </edge>
    <edge id=":10576228455_8" function="internal">
        <lane id=":10576228455_8_0" index="0" allow="pedestrian delivery bicycle" speed="3.65" length="4.67" shape="2445.98,5563.87 2447.07,5564.81 2447.37,5565.66 2446.87,5566.40 2445.59,5567.05"/>
    </edge>
    <edge id=":10603883041_0" function="internal">
        <lane id=":10603883041_0_0" index="0" disallow="tram rail_urban rail rail_electric rail_fast ship container cable_car subway aircraft wheelchair scooter drone" speed="27.78" length="9.41" shape="2335.51,4055.44 2330.56,4047.45"/>
    </edge>
    <edge id=":10603883041_1" function="internal">
        <lane id=":10603883041_1_0" index="0" disallow="tram rail_urban rail rail_electric rail_fast ship container cable_car subway aircraft wheelchair scooter drone" speed="6.04" length="7.87" shape="2335.51,4055.44 2334.22,4052.97 2333.71,4050.98 2333.98,4049.46 2335.03,4048.41"/>
    </edge>
    <edge id=":10603883041_2" function="internal">
        <lane id=":10603883041_2_0" index="0" disallow="tram rail_urban rail rail_electric rail_fast ship container cable_car subway aircraft wheelchair scooter drone" speed="6.19" length="7.82" shape="2336.60,4051.19 2335.19,4051.54 2333.71,4051.04 2332.17,4049.67 2330.56,4047.45"/>
    </edge>
    <edge id=":10603883041_3" function="internal">
        <lane id=":10603883041_3_0" index="0" disallow="tram rail_urban rail rail_electric rail_fast ship container cable_car subway aircraft wheelchair scooter drone" speed="3.65" length="4.67" shape="2336.60,4051.19 2335.16,4051.09 2334.42,4050.59 2334.38,4049.69 2335.03,4048.41"/>
    </edge>
    <edge id=":10603883042_0" function="internal">
        <lane id=":10603883042_0_0" index="0" disallow="tram rail_urban rail rail_electric rail_fast ship container cable_car subway aircraft wheelchair scooter drone" speed="6.64" length="9.20" shape="2353.25,4048.16 2351.67,4046.27 2349.83,4045.32 2347.72,4045.31 2345.34,4046.26"/>
    </edge>
    <edge id=":10603883042_1" function="internal">
        <lane id=":10603883042_1_0" index="0" disallow="tram rail_urban rail rail_electric rail_fast ship container cable_car subway aircraft wheelchair scooter drone" speed="13.89" length="14.40" shape="2353.25,4048.16 2345.75,4035.86"/>
    </edge>
    <edge id=":10603883042_2" function="internal">
        <lane id=":10603883042_2_0" index="0" disallow="tram rail_urban rail rail_electric rail_fast ship container cable_car subway aircraft wheelchair scooter drone" speed="3.65" length="1.44" shape="2353.25,4048.16 2353.31,4046.72"/>
    </edge>
    <edge id=":10603883042_9" function="internal">
        <lane id=":10603883042_9_0" index="0" disallow="tram rail_urban rail rail_electric rail_fast ship container cable_car subway aircraft wheelchair scooter drone" speed="3.65" length="3.23" shape="2353.31,4046.72 2353.78,4045.96 2354.67,4045.89 2355.98,4046.49"/>
    </edge>
    <edge id=":10603883042_3" function="internal">