<configuration>
    <input>
        <net-file value="../network.net.xml"/>
        <route-files value="../routes.rou.xml"/>
        <additional-files value="../lights.add.xml"/>
    </input>
    <time>
        <begin value="0"/>
        <end value="3600"/>
        <step-length value="1"/>
    </time>
    <output>
        <summary value="output/summary.xml"/>
    </output>
</configuration>
